FORESEER
TIGRINA
OUTHAULER
RETROGRESSION
EXCRUCIATING
STANDPAT
PERFECTIONATION
COMMENSURABLENESS
CHLOROPRENE
POSTEROTEMPORAL
GRUMOUS
ANTHROPOTELEOLOGICAL
NONREPENTANCE
NODIFEROUS
FOLLICULITIS
UNSINCERE
NONILLION
UNDOUBTINGLY
FILO
EXAGGERATIVE
PHANEROGAMIAN
SICKENING
MEDIOCUBITAL
SOVIETIST
BIOMETRICAL
PRESBYTINAE
ANNONACEAE
SESQUISILICATE
NOTHARCTUS
UNAPPRECIABLENESS
RABBINIC
ANALGESIDAE
HERACLITEAN
TRIOZONIDE
NONOXIDIZABLE
THERMOVOLTAIC
BRAHMA
DECOROUS
AGALITE
SHAVEWEED
CONNASCENT
DEPLOREDNESS
SINGALLY
EXPERTLY
BOMBSHELL
EMPURPLE
COGNOSCITIVE
UNPINIONED
EMU
SYSTYLE
TARAND
PHON
DISINGENUITY
PROMAMMALIA
NONREDRESSING
UNJADED
INAPPETIBLE
ENGRAVER
AUTOPHAGIA
PLEISTOSEIST
JUVENILELY
TROPEINE
SULPHUROUSNESS
BUILDING
REVIEWAL
UNSUBMISSIVELY
PENEPLANE
UNAGED
PLATYDOLICHOCEPHALOUS
AVERRUNCATION
CAGE
UNBRAID
VENERABLY
PROREVOLUTIONARY
OVERLOYALTY
CURTAIN
CONCEIVABILITY
PATHOANATOMICAL
USE
AMPHISTOMA
THEOPHOBIA
DIAMANTINE
PATIBLE
REBRIBE
TELETYPER
BOOKSHOP
FOEMANSHIP
LIGNICOLOUS
METALLOGENY
ENDOSPERM
HIRUNDINE
HORNET
WORSHIP
MARSHALMAN
PECORA
BUCKETING
PROUDISHLY
PRESYNAPSIS
FUNGATE
PRENASAL
HYDROBIOSIS
JUSTIFICATORY
HEROSHIP
SNIPTIOUS
TWIGSOME
PROCYONIDAE
RESTORATIVELY
CORMAC
BEAUTIFULNESS
